New Line.ESE001TBT01 Bus1=19 Bus2=20 phases=3 Linecode=NYY-3x25   Length=25.14394974 Units=m
New Line.ESE001TBT02 Bus1=18 Bus2=19 phases=3 Linecode=AUT_AL-3x120   Length=153.4074583 Units=m
New Line.ESE001TBT03 Bus1=17 Bus2=18 phases=3 Linecode=NYY-3x25   Length=25.14394974 Units=m
New Line.ESE001TBT04 Bus1=16 Bus2=17 phases=3 Linecode=AUT_AL-3x120   Length=153.4074583 Units=m
New Line.ESE001TBT05 Bus1=15 Bus2=16 phases=3 Linecode=N2XY-3x25   Length=46.15064213 Units=m
New Line.ESE001TBT06 Bus1=14 Bus2=15 phases=3 Linecode=AUT_AL-3x120   Length=153.4074583 Units=m
New Line.ESE001TBT07 Bus1=13 Bus2=14 phases=3 Linecode=CPI-3x35   Length=97.61545809 Units=m
New Line.ESE001TBT08 Bus1=12 Bus2=13 phases=3 Linecode=NYY-3x35   Length=167.0291081 Units=m
New Line.ESE001TBT09 Bus1=11 Bus2=12 phases=3 Linecode=NYY-3x35   Length=167.0291081 Units=m
New Line.ESE001TBT010 Bus1=10 Bus2=11 phases=3 Linecode=NYY-3x35   Length=167.0291081 Units=m
New Line.ESE001TBT011 Bus1=9 Bus2=10 phases=3 Linecode=NYY-3x35   Length=167.0291081 Units=m
New Line.ESE001TBT012 Bus1=8 Bus2=9 phases=3 Linecode=CPI-3x35   Length=97.61545809 Units=m
New Line.ESE001TBT013 Bus1=7 Bus2=8 phases=3 Linecode=NYY-3x35   Length=167.0291081 Units=m
New Line.ESE001TBT014 Bus1=6 Bus2=7 phases=3 Linecode=CPI-3x35   Length=97.61545809 Units=m
New Line.ESE001TBT015 Bus1=5 Bus2=6 phases=3 Linecode=NYY-3x35   Length=167.0291081 Units=m
New Line.ESE001TBT016 Bus1=4 Bus2=5 phases=3 Linecode=CPI-3x35   Length=97.61545809 Units=m
New Line.ESE001TBT017 Bus1=3 Bus2=4 phases=3 Linecode=CPI-3x35   Length=97.61545809 Units=m
New Line.ESE001TBT018 Bus1=2 Bus2=3 phases=3 Linecode=NYY-3x35   Length=167.0291081 Units=m
New Line.ESE001TBT019 Bus1=1 Bus2=2 phases=3 Linecode=NYY-3x50   Length=17.4749198 Units=m
New Line.ESE001TBT020 Bus1=1 Bus2=100 phases=3 Linecode=NYY-3x50   Length=32.01950085 Units=m
New Line.ESE001TBT021 Bus1=100 Bus2=101 phases=3 Linecode=NYY-3x35   Length=141.0524052 Units=m
New Line.ESE001TBT022 Bus1=101 Bus2=102 phases=3 Linecode=NYY-3x35   Length=141.0524052 Units=m
New Line.ESE001TBT023 Bus1=102 Bus2=103 phases=3 Linecode=NYY-3x35   Length=141.0524052 Units=m
New Line.ESE001TBT024 Bus1=103 Bus2=104 phases=3 Linecode=NYY-3x35   Length=141.0524052 Units=m
New Line.ESE001TBT025 Bus1=104 Bus2=105 phases=3 Linecode=AUT_AL-3x25   Length=27.43951489 Units=m
New Line.ESE001TBT026 Bus1=105 Bus2=106 phases=3 Linecode=NYY-3x35   Length=141.0524052 Units=m
New Line.ESE001TBT027 Bus1=106 Bus2=107 phases=3 Linecode=AUT_AL-3x25   Length=27.43951489 Units=m
New Line.ESE001TBT028 Bus1=107 Bus2=108 phases=3 Linecode=CPI-3x25   Length=114.0644137 Units=m
New Line.ESE001TBT029 Bus1=108 Bus2=109 phases=3 Linecode=CPI-3x25   Length=114.0644137 Units=m
New Line.ESE001TBT030 Bus1=109 Bus2=110 phases=3 Linecode=CPI-3x25   Length=114.0644137 Units=m
New Line.ESE001TBT031 Bus1=110 Bus2=111 phases=3 Linecode=NYY-3x35   Length=141.0524052 Units=m
New Line.ESE001TBT032 Bus1=111 Bus2=111 phases=3 Linecode=CPI-3x25   Length=25.13310463 Units=m